33
156613987
O          1.83230       -0.71090        0.51180
O         -0.21050        1.68240       -1.37580
O         -0.44750       -0.26200        1.70840
O         -2.75550       -0.15850        0.03370
O          4.38640        0.92640       -0.48820
O          1.85390       -2.06950       -1.35640
O         -4.85870        0.79320        0.11810
C          0.06710        0.58650       -0.50560
C          1.59050        0.43090       -0.31210
C         -0.68420        0.82700        0.81780
C          2.22340        1.65960        0.34800
C         -2.19580        0.99650        0.64640
C          3.72290        1.72900        0.15920
C          1.94240       -1.90030       -0.14780
C         -4.10660       -0.12670       -0.17350
C          2.19290       -3.00130        0.83760
C         -4.55290       -1.40230       -0.82160
H         -0.32260       -0.32640       -0.97190
H          2.05320        0.30770       -1.30080
H         -0.31090        1.73940        1.29690
H          1.82270        2.58820       -0.07190
H          2.04970        1.65620        1.42980
H         -2.41290        1.87940        0.03440
H         -2.66090        1.12570        1.63140
H          0.25030        1.51270       -2.21510
H         -0.89130       -0.05750        2.54910
H          4.21230        2.58700        0.65200
H          3.12630       -2.81310        1.37400
H          1.35470       -3.07140        1.53530
H          2.28300       -3.95190        0.30420
H         -4.05660       -1.51980       -1.78820
H         -4.32790       -2.24830       -0.16750
H         -5.63360       -1.36670       -0.98670
