33
Coordinates from ORCA-job orca_input
  O   1.18702266774795     -0.65798320796024      0.49456422888783
  O   0.11054752230325      2.29403953291484     -1.49279649563007
  O   -0.50972310761747      1.14852101405307      1.82611663419241
  O   -2.77876044528026      0.21113770444711     -0.37515622485842
  O   4.13324511218764      0.17316740424119     -0.12040402986321
  O   0.41723167072750     -1.78741187495747     -1.32200638853450
  O   -1.93523086595974     -1.08031856534254      1.29695456456318
  C   -0.05658337810682      1.15700299572259     -0.64236402223814
  C   1.31998704586275      0.56285211502650     -0.27688115859637
  C   -0.90305642148798      1.64515327748260      0.56847567295788
  C   2.21061027416841      1.49551116776215      0.52333533823152
  C   -2.40802792986414      1.45508438130153      0.28857275654689
  C   3.66473044789974      1.08580981509283      0.53355196460722
  C   0.76143953232462     -1.77022340566304     -0.14857967474482
  C   -2.50000534820022     -0.96807544163626      0.21170791683584
  C   0.76343708444517     -2.95633858459973      0.78463025627339
  C   -2.89729959666180     -2.13212517973498     -0.65486847672934
  H   -0.59525310640049      0.35493846334446     -1.18751596017744
  H   1.82048750447055      0.29221001256787     -1.23241693989311
  H   -0.74357852687866      2.74599619576005      0.60751296024301
  H   2.14628511102479      2.51778763853841      0.08477957361294
  H   1.82862401941898      1.58425835310064      1.56312075546376
  H   -2.76161663346435      2.22422467400944     -0.42203128636475
  H   -2.96866565775235      1.54139006706264      1.24211599798961
  H   0.35963871754954      1.96378557716889     -2.37620682268722
  H   -0.87545000170551      0.23117068879972      1.87611135239397
  H   4.32385824847405      1.71075217268249      1.21164545765260
  H   1.80208531816031     -3.18034645405722      1.10071042386211
  H   0.17473283611104     -2.71671365222381      1.69064750352759
  H   0.33311778541096     -3.83366895934089      0.27148519290483
  H   -3.73848622601826     -1.87946232341514     -1.32474579474523
  H   -2.01118240058036     -2.38773417429539     -1.27546364258101
  H   -3.13856125230880     -3.00319142785233     -0.01960163310294
